packages/topology_optimizer_pkg/optimizer_tests/data/case57/grid.xiidm
<?xml version="1.0" encoding="UTF-8"?>
<iidm:network xmlns:iidm="http://www.powsybl.org/schema/iidm/1_14" xmlns:slt="http://www.powsybl.org/schema/iidm/ext/slack_terminal/1_5" xmlns:reft="http://www.powsybl.org/schema/iidm/ext/reference_terminals/1_0" id="ieee57cdf" caseDate="1993-08-25T00:00:00.000Z" forecastDistance="0" sourceFormat="IEEE-CDF" minimumValidationLevel="STEADY_STATE_HYPOTHESIS">
    <iidm:substation id="S1">
        <iidm:voltageLevel id="VL1" nominalV="1.0" topologyKind="BUS_BREAKER">
            <iidm:busBreakerTopology>
                <iidm:bus id="B1" name="Kanawha   V1" angle="0.0"/>
                <iidm:bus id="B1_b" name="B1_b" angle="0.0"/>
                <iidm:switch id="SWITCH-B1" kind="BREAKER" retained="true" open="false" bus1="B1" bus2="B1_b"/>
            </iidm:busBreakerTopology>
            <iidm:generator id="B1-G" energySource="OTHER" minP="-9999.0" maxP="4999.0" voltageRegulatorOn="true" targetP="128.9" targetV="1.04" targetQ="-16.1" bus="B1" connectableBus="B1" p="-173.56886640111964" q="-0.0">
                <iidm:minMaxReactiveLimits minQ="-1.7976931348623157E308" maxQ="1.7976931348623157E308"/>
            </iidm:generator>
            <iidm:load id="B1-L" loadType="UNDEFINED" p0="55.0" q0="17.0" bus="B1" connectableBus="B1" p="55.0" q="17.0"/>
        </iidm:voltageLevel>
    </iidm:substation>
    <iidm:substation id="S2">
        <iidm:voltageLevel id="VL2" nominalV="1.0" topologyKind="BUS_BREAKER">
            <iidm:busBreakerTopology>
                <iidm:bus id="B2" name="Turner    V1" angle="-0.19938242680689405"/>
                <iidm:bus id="B2_b" name="B2_b" angle="-0.19938242680689405"/>
                <iidm:switch id="SWITCH-B2" kind="BREAKER" retained="true" open="false" bus1="B2" bus2="B2_b"/>
            </iidm:busBreakerTopology>
            <iidm:generator id="B2-G" energySource="OTHER" minP="-9999.0" maxP="4999.0" voltageRegulatorOn="true" targetP="0.0" targetV="1.01" targetQ="-0.8" bus="B2" connectableBus="B2" p="-0.0" q="-0.0">
                <iidm:minMaxReactiveLimits minQ="-17.0" maxQ="50.0"/>
            </iidm:generator>
            <iidm:load id="B2-L" loadType="UNDEFINED" p0="3.0" q0="88.0" bus="B2" connectableBus="B2" p="3.0" q="88.0"/>
        </iidm:voltageLevel>
    </iidm:substation>
    <iidm:substation id="S3">
        <iidm:voltageLevel id="VL3" nominalV="1.0" topologyKind="BUS_BREAKER">
            <iidm:busBreakerTopology>
                <iidm:bus id="B3" name="Logan     V1" angle="-0.6585462704266052"/>
                <iidm:bus id="B3_b" name="B3_b" angle="-0.6585462704266052"/>
                <iidm:switch id="SWITCH-B3" kind="BREAKER" retained="true" open="false" bus1="B3" bus2="B3_b"/>
            </iidm:busBreakerTopology>
            <iidm:generator id="B3-G" energySource="OTHER" minP="-9999.0" maxP="4999.0" voltageRegulatorOn="false" targetP="40.0" targetV="0.985" targetQ="-1.0" bus="B3" connectableBus="B3" p="-53.86155667994403" q="1.0">
                <iidm:minMaxReactiveLimits minQ="-10.0" maxQ="60.0"/>
            </iidm:generator>
            <iidm:load id="B3-L" loadType="UNDEFINED" p0="41.0" q0="21.0" bus="B3" connectableBus="B3" p="41.0" q="21.0"/>
        </iidm:voltageLevel>
    </iidm:substation>
    <iidm:substation id="S4">
        <iidm:voltageLevel id="VL4" nominalV="1.0" topologyKind="BUS_BREAKER">
            <iidm:busBreakerTopology>
                <iidm:bus id="B4" name="Sprigg    V1" angle="-0.32299000104482267"/>
                <iidm:bus id="B18" name="Sprigg    V2" angle="-4.57131575274736"/>
                <iidm:bus id="B4_b" name="B4_b" angle="-0.32299000104482267"/>
                <iidm:bus id="B18_b" name="B18_b" angle="-4.57131575274736"/>
                <iidm:switch id="SWITCH-B4" kind="BREAKER" retained="true" open="false" bus1="B4" bus2="B4_b"/>
                <iidm:switch id="SWITCH-B18" kind="BREAKER" retained="true" open="false" bus1="B18" bus2="B18_b"/>
            </iidm:busBreakerTopology>
            <iidm:load id="B18-L" loadType="UNDEFINED" p0="27.2" q0="9.8" bus="B18" connectableBus="B18" p="27.2" q="9.8"/>
            <iidm:shunt id="B18-SH" sectionCount="1" solvedSectionCount="1" voltageRegulatorOn="false" bus="B18" connectableBus="B18" p="0.0">
                <iidm:shuntLinearModel bPerSection="10.0" maximumSectionCount="1"/>
            </iidm:shunt>
        </iidm:voltageLevel>
        <iidm:twoWindingsTransformer id="T4-18-1" r="0.0" x="0.00555" g="0.0" b="0.0" ratedU1="0.97" ratedU2="1.0" voltageLevelId1="VL4" bus1="B4" connectableBus1="B4" voltageLevelId2="VL4" bus2="B18" connectableBus2="B18" p1="13.773060660253062" p2="-13.773060660253062" selectedOperationalLimitsGroupId1="DEFAULT">
            <iidm:operationalLimitsGroup1 id="DEFAULT">
                <iidm:currentLimits permanentLimit="8408.400101550762">
                    <iidm:temporaryLimit name="N-1" acceptableDuration="2" value="16816.800203101524"/>
                </iidm:currentLimits>
            </iidm:operationalLimitsGroup1>
        </iidm:twoWindingsTransformer>
        <iidm:twoWindingsTransformer id="T4-18-2" r="0.0" x="0.0043" g="0.0" b="0.0" ratedU1="0.978" ratedU2="1.0" voltageLevelId1="VL4" bus1="B4" connectableBus1="B4" voltageLevelId2="VL4" bus2="B18" connectableBus2="B18" p1="17.631443397648823" p2="-17.631443397648823" selectedOperationalLimitsGroupId1="DEFAULT">
            <iidm:operationalLimitsGroup1 id="DEFAULT">
                <iidm:currentLimits permanentLimit="10627.882261488587">
                    <iidm:temporaryLimit name="N-1" acceptableDuration="2" value="21255.764522977173"/>
                </iidm:currentLimits>
            </iidm:operationalLimitsGroup1>
        </iidm:twoWindingsTransformer>
    </iidm:substation>
    <iidm:substation id="S5">
        <iidm:voltageLevel id="VL5" nominalV="1.0" topologyKind="BUS_BREAKER">
            <iidm:busBreakerTopology>
                <iidm:bus id="B5" name="Bus 5     V1" angle="1.0359386337204415"/>
                <iidm:bus id="B5_b" name="B5_b" angle="1.0359386337204415"/>
                <iidm:switch id="SWITCH-B5" kind="BREAKER" retained="true" open="false" bus1="B5" bus2="B5_b"/>
            </iidm:busBreakerTopology>
            <iidm:load id="B5-L" loadType="UNDEFINED" p0="13.0" q0="4.0" bus="B5" connectableBus="B5" p="13.0" q="4.0"/>
        </iidm:voltageLevel>
    </iidm:substation>
    <iidm:substation id="S6">
        <iidm:voltageLevel id="VL6" nominalV="1.0" topologyKind="BUS_BREAKER">
            <iidm:busBreakerTopology>
                <iidm:bus id="B6" name="Beaver Ck V1" angle="2.1732883453760885"/>
                <iidm:bus id="PSTBus" angle="-4.461913630528953"/>
                <iidm:bus id="B6_b" name="B6_b" angle="2.1732883453760885"/>
                <iidm:bus id="PSTBus_b" name="PSTBus_b" angle="-4.461913630528953"/>
                <iidm:switch id="SWITCH-B6" kind="BREAKER" retained="true" open="false" bus1="B6" bus2="B6_b"/>
                <iidm:switch id="SWITCH-PSTBus" kind="BREAKER" retained="true" open="false" bus1="PSTBus" bus2="PSTBus_b"/>
            </iidm:busBreakerTopology>
            <iidm:generator id="B6-G" energySource="OTHER" minP="-9999.0" maxP="4999.0" voltageRegulatorOn="false" targetP="0.0" targetV="0.98" targetQ="0.8" bus="B6" connectableBus="B6" p="-0.0" q="-0.8">
                <iidm:minMaxReactiveLimits minQ="-8.0" maxQ="25.0"/>
            </iidm:generator>
            <iidm:load id="B6-L" loadType="UNDEFINED" p0="75.0" q0="2.0" bus="B6" connectableBus="B6" p="75.0" q="2.0"/>
        </iidm:voltageLevel>
        <iidm:twoWindingsTransformer id="PST" r="0.0" x="0.001" g="0.0" b="0.0" ratedU1="1.0" ratedU2="1.0" voltageLevelId1="VL6" bus1="PSTBus" connectableBus1="PSTBus" voltageLevelId2="VL6" bus2="B6" connectableBus2="B6" p1="23.820219145169936" p2="-23.820219145169936" selectedOperationalLimitsGroupId1="DEFAULT">
            <iidm:phaseTapChanger regulating="false" lowTapPosition="0" tapPosition="1" solvedTapPosition="1" loadTapChangingCapabilities="true" regulationMode="CURRENT_LIMITER">
                <iidm:step r="0.0" x="0.0" g="0.0" b="0.0" rho="1.0" alpha="0.0"/>
                <iidm:step r="0.0" x="0.0" g="0.0" b="0.0" rho="1.0" alpha="8.0"/>
                <iidm:step r="0.0" x="0.0" g="0.0" b="0.0" rho="1.0" alpha="16.0"/>
            </iidm:phaseTapChanger>
            <iidm:operationalLimitsGroup1 id="DEFAULT">
                <iidm:currentLimits permanentLimit="15858.955996726463">
                    <iidm:temporaryLimit name="N-1" acceptableDuration="2" value="31717.911993452926"/>
                </iidm:currentLimits>
            </iidm:operationalLimitsGroup1>
        </iidm:twoWindingsTransformer>
    </iidm:substation>
    <iidm:substation id="S7">
        <iidm:voltageLevel id="VL7" nominalV="1.0" topologyKind="BUS_BREAKER">
            <iidm:busBreakerTopology>
                <iidm:bus id="B7" name="Bus 7     V1" angle="4.552524751309053"/>
                <iidm:bus id="B29" name="Bus 29    V5" angle="1.925342377897556"/>
                <iidm:bus id="B7_b" name="B7_b" angle="4.552524751309053"/>
                <iidm:bus id="B29_b" name="B29_b" angle="1.925342377897556"/>
                <iidm:switch id="SWITCH-B7" kind="BREAKER" retained="true" open="false" bus1="B7" bus2="B7_b"/>
                <iidm:switch id="SWITCH-B29" kind="BREAKER" retained="true" open="false" bus1="B29" bus2="B29_b"/>
            </iidm:busBreakerTopology>
            <iidm:load id="B29-L" loadType="UNDEFINED" p0="17.0" q0="2.6" bus="B29" connectableBus="B29" p="17.0" q="2.6"/>
        </iidm:voltageLevel>
        <iidm:twoWindingsTransformer id="T7-29-1" r="0.0" x="6.48E-4" g="0.0" b="0.0" ratedU1="0.967" ratedU2="1.0" voltageLevelId1="VL7" bus1="B7" connectableBus1="B7" voltageLevelId2="VL7" bus2="B29" connectableBus2="B29" p1="73.1755691945143" p2="-73.1755691945143" selectedOperationalLimitsGroupId1="DEFAULT">
            <iidm:operationalLimitsGroup1 id="DEFAULT">
                <iidm:currentLimits permanentLimit="40294.15093693937">
                    <iidm:temporaryLimit name="N-1" acceptableDuration="2" value="80588.30187387874"/>
                </iidm:currentLimits>
            </iidm:operationalLimitsGroup1>
        </iidm:twoWindingsTransformer>
    </iidm:substation>
    <iidm:substation id="S8">
        <iidm:voltageLevel id="VL8" nominalV="1.0" topologyKind="BUS_BREAKER">
            <iidm:busBreakerTopology>
                <iidm:bus id="B8" name="Clinch Rv V1" angle="9.198492776197726"/>
                <iidm:bus id="B8_b" name="B8_b" angle="9.198492776197726"/>
                <iidm:switch id="SWITCH-B8" kind="BREAKER" retained="true" open="false" bus1="B8" bus2="B8_b"/>
            </iidm:busBreakerTopology>
            <iidm:generator id="B8-G" energySource="OTHER" minP="-9999.0" maxP="4999.0" voltageRegulatorOn="true" targetP="450.0" targetV="1.005" targetQ="62.1" bus="B8" connectableBus="B8" p="-605.9425126493703" q="-0.0">
                <iidm:minMaxReactiveLimits minQ="-140.0" maxQ="200.0"/>
            </iidm:generator>
            <iidm:load id="B8-L" loadType="UNDEFINED" p0="150.0" q0="22.0" bus="B8" connectableBus="B8" p="150.0" q="22.0"/>
        </iidm:voltageLevel>
    </iidm:substation>
    <iidm:substation id="S9">
        <iidm:voltageLevel id="VL9" nominalV="1.0" topologyKind="BUS_BREAKER">
            <iidm:busBreakerTopology>
                <iidm:bus id="B9" name="Saltville V1" angle="1.3520381689877086"/>
                <iidm:bus id="B55" name="Saltville V5" angle="0.3826423218687296"/>
                <iidm:bus id="B9_b" name="B9_b" angle="1.3520381689877086"/>
                <iidm:bus id="B55_b" name="B55_b" angle="0.3826423218687296"/>
                <iidm:switch id="SWITCH-B9" kind="BREAKER" retained="true" open="false" bus1="B9" bus2="B9_b"/>
                <iidm:switch id="SWITCH-B55" kind="BREAKER" retained="true" open="false" bus1="B55" bus2="B55_b"/>
            </iidm:busBreakerTopology>
            <iidm:generator id="B9-G" energySource="OTHER" minP="-9999.0" maxP="4999.0" voltageRegulatorOn="true" targetP="0.0" targetV="0.98" targetQ="2.2" bus="B9" connectableBus="B9" p="-0.0" q="-0.0">
                <iidm:minMaxReactiveLimits minQ="-3.0" maxQ="9.0"/>
            </iidm:generator>
            <iidm:load id="B9-L" loadType="UNDEFINED" p0="121.0" q0="26.0" bus="B9" connectableBus="B9" p="121.0" q="26.0"/>
            <iidm:load id="B55-L" loadType="UNDEFINED" p0="6.8" q0="3.4" bus="B55" connectableBus="B55" p="6.8" q="3.4"/>
        </iidm:voltageLevel>
        <iidm:twoWindingsTransformer id="T9-55-1" r="0.0" x="0.001205" g="0.0" b="0.0" ratedU1="0.94" ratedU2="1.0" voltageLevelId1="VL9" bus1="B9" connectableBus1="B9" voltageLevelId2="VL9" bus2="B55" connectableBus2="B55" p1="14.937008287618761" p2="-14.937008287618761" selectedOperationalLimitsGroupId1="DEFAULT">
            <iidm:operationalLimitsGroup1 id="DEFAULT">
                <iidm:currentLimits permanentLimit="11920.717352102665">
                    <iidm:temporaryLimit name="N-1" acceptableDuration="2" value="23841.43470420533"/>
                </iidm:currentLimits>
            </iidm:operationalLimitsGroup1>
        </iidm:twoWindingsTransformer>
    </iidm:substation>
    <iidm:substation id="S10">
        <iidm:voltageLevel id="VL10" nominalV="1.0" topologyKind="BUS_BREAKER">
            <iidm:busBreakerTopology>
                <iidm:bus id="B10" name="Bus 10    V1" angle="-1.9149061436042187"/>
                <iidm:bus id="B51" name="Bus 51    V3" angle="-3.2419105065843796"/>
                <iidm:bus id="B10_b" name="B10_b" angle="-1.9149061436042187"/>
                <iidm:bus id="B51_b" name="B51_b" angle="-3.2419105065843796"/>
                <iidm:switch id="SWITCH-B10" kind="BREAKER" retained="true" open="false" bus1="B10" bus2="B10_b"/>
                <iidm:switch id="SWITCH-B51" kind="BREAKER" retained="true" open="false" bus1="B51" bus2="B51_b"/>
            </iidm:busBreakerTopology>
            <iidm:load id="B10-L" loadType="UNDEFINED" p0="5.0" q0="2.0" bus="B10" connectableBus="B10" p="5.0" q="2.0"/>
            <iidm:load id="B51-L" loadType="UNDEFINED" p0="18.0" q0="5.3" bus="B51" connectableBus="B51" p="18.0" q="5.3"/>
        </iidm:voltageLevel>
        <iidm:twoWindingsTransformer id="T10-51-1" r="0.0" x="7.12E-4" g="0.0" b="0.0" ratedU1="0.93" ratedU2="1.0" voltageLevelId1="VL10" bus1="B10" connectableBus1="B10" voltageLevelId2="VL10" bus2="B51" connectableBus2="B51" p1="34.97733980055237" p2="-34.97733980055237" selectedOperationalLimitsGroupId1="DEFAULT">
            <iidm:operationalLimitsGroup1 id="DEFAULT">
                <iidm:currentLimits permanentLimit="20153.478827040653">
                    <iidm:temporaryLimit name="N-1" acceptableDuration="2" value="40306.95765408131"/>
                </iidm:currentLimits>
            </iidm:operationalLimitsGroup1>
        </iidm:twoWindingsTransformer>
    </iidm:substation>
    <iidm:substation id="S11">
        <iidm:voltageLevel id="VL11" nominalV="1.0" topologyKind="BUS_BREAKER">
            <iidm:busBreakerTopology>
                <iidm:bus id="B11" name="Tazewell  V1" angle="-0.9933972459169487"/>
                <iidm:bus id="B41" name="Tazewell  V6" angle="-5.389341999483262"/>
                <iidm:bus id="B43" name="Tazewell  V7" angle="-2.2708131589038714"/>
                <iidm:bus id="B11_b" name="B11_b" angle="-0.9933972459169487"/>
                <iidm:bus id="B41_b" name="B41_b" angle="-5.389341999483262"/>
                <iidm:bus id="B43_b" name="B43_b" angle="-2.2708131589038714"/>
                <iidm:switch id="SWITCH-B11" kind="BREAKER" retained="true" open="false" bus1="B11" bus2="B11_b"/>
                <iidm:switch id="SWITCH-B41" kind="BREAKER" retained="true" open="false" bus1="B41" bus2="B41_b"/>
                <iidm:switch id="SWITCH-B43" kind="BREAKER" retained="true" open="false" bus1="B43" bus2="B43_b"/>
            </iidm:busBreakerTopology>
            <iidm:load id="B41-L" loadType="UNDEFINED" p0="6.3" q0="3.0" bus="B41" connectableBus="B41" p="6.3" q="3.0"/>
            <iidm:load id="B43-L" loadType="UNDEFINED" p0="2.0" q0="1.0" bus="B43" connectableBus="B43" p="2.0" q="1.0"/>
        </iidm:voltageLevel>
        <iidm:twoWindingsTransformer id="T11-41-1" r="0.0" x="0.00749" g="0.0" b="0.0" ratedU1="0.955" ratedU2="1.0" voltageLevelId1="VL11" bus1="B11" connectableBus1="B11" voltageLevelId2="VL11" bus2="B41" connectableBus2="B41" p1="10.726163287245532" p2="-10.726163287245532" selectedOperationalLimitsGroupId1="DEFAULT">
            <iidm:operationalLimitsGroup1 id="DEFAULT">
                <iidm:currentLimits permanentLimit="6087.538793774009">
                    <iidm:temporaryLimit name="N-1" acceptableDuration="2" value="12175.077587548018"/>
                </iidm:currentLimits>
            </iidm:operationalLimitsGroup1>
        </iidm:twoWindingsTransformer>
        <iidm:twoWindingsTransformer id="T11-43-1" r="0.0" x="0.0015300000000000001" g="0.0" b="0.0" ratedU1="0.958" ratedU2="1.0" voltageLevelId1="VL11" bus1="B11" connectableBus1="B11" voltageLevelId2="VL11" bus2="B43" connectableBus2="B43" p1="15.210824292842654" p2="-15.210824292842654" selectedOperationalLimitsGroupId1="DEFAULT">
            <iidm:operationalLimitsGroup1 id="DEFAULT">
                <iidm:currentLimits permanentLimit="8895.178294776986">
                    <iidm:temporaryLimit name="N-1" acceptableDuration="2" value="17790.356589553972"/>
                </iidm:currentLimits>
            </iidm:operationalLimitsGroup1>
        </iidm:twoWindingsTransformer>
    </iidm:substation>
    <iidm:substation id="S12">
        <iidm:voltageLevel id="VL12" nominalV="1.0" topologyKind="BUS_BREAKER">
            <iidm:busBreakerTopology>
                <iidm:bus id="B12" name="Glen Lyn  V1" angle="-1.479812787211267"/>
                <iidm:bus id="B12_b" name="B12_b" angle="-1.479812787211267"/>
                <iidm:switch id="SWITCH-B12" kind="BREAKER" retained="true" open="false" bus1="B12" bus2="B12_b"/>
            </iidm:busBreakerTopology>
            <iidm:generator id="B12-G" energySource="OTHER" minP="-9999.0" maxP="4999.0" voltageRegulatorOn="true" targetP="310.0" targetV="1.015" targetQ="128.5" bus="B12" connectableBus="B12" p="-417.4270642695662" q="-0.0">
                <iidm:minMaxReactiveLimits minQ="-150.0" maxQ="155.0"/>
            </iidm:generator>
            <iidm:load id="B12-L" loadType="UNDEFINED" p0="377.0" q0="24.0" bus="B12" connectableBus="B12" p="377.0" q="24.0"/>
        </iidm:voltageLevel>
    </iidm:substation>
    <iidm:substation id="S13">
        <iidm:voltageLevel id="VL13" nominalV="1.0" topologyKind="BUS_BREAKER">
            <iidm:busBreakerTopology>
                <iidm:bus id="B13" name="Bus 13    V1" angle="-1.9301842948344916"/>
                <iidm:bus id="B49" name="Bus 49    V3" angle="-5.08690006767304"/>
                <iidm:bus id="B13_b" name="B13_b" angle="-1.9301842948344916"/>
                <iidm:bus id="B49_b" name="B49_b" angle="-5.08690006767304"/>
                <iidm:switch id="SWITCH-B13" kind="BREAKER" retained="true" open="false" bus1="B13" bus2="B13_b"/>
                <iidm:switch id="SWITCH-B49" kind="BREAKER" retained="true" open="false" bus1="B49" bus2="B49_b"/>
            </iidm:busBreakerTopology>
            <iidm:load id="B13-L" loadType="UNDEFINED" p0="18.0" q0="2.3" bus="B13" connectableBus="B13" p="18.0" q="2.3"/>
            <iidm:load id="B49-L" loadType="UNDEFINED" p0="18.0" q0="8.5" bus="B49" connectableBus="B49" p="18.0" q="8.5"/>
        </iidm:voltageLevel>
        <iidm:twoWindingsTransformer id="T13-49-1" r="0.0" x="0.00191" g="0.0" b="0.0" ratedU1="0.895" ratedU2="1.0" voltageLevelId1="VL13" bus1="B13" connectableBus1="B13" voltageLevelId2="VL13" bus2="B49" connectableBus2="B49" p1="32.22971352520989" p2="-32.22971352520989" selectedOperationalLimitsGroupId1="DEFAULT">
            <iidm:operationalLimitsGroup1 id="DEFAULT">
                <iidm:currentLimits permanentLimit="27650.87803456586">
                    <iidm:temporaryLimit name="N-1" acceptableDuration="2" value="55301.75606913172"/>
                </iidm:currentLimits>
            </iidm:operationalLimitsGroup1>
        </iidm:twoWindingsTransformer>
    </iidm:substation>
    <iidm:substation id="S14">
        <iidm:voltageLevel id="VL14" nominalV="1.0" topologyKind="BUS_BREAKER">
            <iidm:busBreakerTopology>
                <iidm:bus id="B14" name="Bus 14    V1" angle="-2.529511791032534"/>
                <iidm:bus id="B46" name="Bus 46    V3" angle="-3.9014651896544743"/>
                <iidm:bus id="B14_b" name="B14_b" angle="-2.529511791032534"/>
                <iidm:bus id="B46_b" name="B46_b" angle="-3.9014651896544743"/>
                <iidm:switch id="SWITCH-B14" kind="BREAKER" retained="true" open="false" bus1="B14" bus2="B14_b"/>
                <iidm:switch id="SWITCH-B46" kind="BREAKER" retained="true" open="false" bus1="B46" bus2="B46_b"/>
            </iidm:busBreakerTopology>
            <iidm:load id="B14-L" loadType="UNDEFINED" p0="10.5" q0="5.3" bus="B14" connectableBus="B14" p="10.5" q="5.3"/>
        </iidm:voltageLevel>
        <iidm:twoWindingsTransformer id="T14-46-1" r="0.0" x="7.35E-4" g="0.0" b="0.0" ratedU1="0.9" ratedU2="1.0" voltageLevelId1="VL14" bus1="B14" connectableBus1="B14" voltageLevelId2="VL14" bus2="B46" connectableBus2="B46" p1="36.19819197260634" p2="-36.19819197260634" selectedOperationalLimitsGroupId1="DEFAULT">
            <iidm:operationalLimitsGroup1 id="DEFAULT">
                <iidm:currentLimits permanentLimit="31295.886425693203">
                    <iidm:temporaryLimit name="N-1" acceptableDuration="2" value="62591.772851386406"/>
                </iidm:currentLimits>
            </iidm:operationalLimitsGroup1>
        </iidm:twoWindingsTransformer>
    </iidm:substation>
    <iidm:substation id="S15">
        <iidm:voltageLevel id="VL15" nominalV="1.0" topologyKind="BUS_BREAKER">
            <iidm:busBreakerTopology>
                <iidm:bus id="B15" name="Bus 15    V1" angle="-1.8213270933967214"/>
                <iidm:bus id="B45" name="Bus 45    V3" angle="-3.3288587295593204"/>
                <iidm:bus id="B15_b" name="B15_b" angle="-1.8213270933967214"/>
                <iidm:bus id="B45_b" name="B45_b" angle="-3.3288587295593204"/>
                <iidm:switch id="SWITCH-B15" kind="BREAKER" retained="true" open="false" bus1="B15" bus2="B15_b"/>
                <iidm:switch id="SWITCH-B45" kind="BREAKER" retained="true" open="false" bus1="B45" bus2="B45_b"/>
            </iidm:busBreakerTopology>
            <iidm:load id="B15-L" loadType="UNDEFINED" p0="22.0" q0="5.0" bus="B15" connectableBus="B15" p="22.0" q="5.0"/>
        </iidm:voltageLevel>
        <iidm:twoWindingsTransformer id="T15-45-1" r="0.0" x="0.001042" g="0.0" b="0.0" ratedU1="0.955" ratedU2="1.0" voltageLevelId1="VL15" bus1="B15" connectableBus1="B15" voltageLevelId2="VL15" bus2="B45" connectableBus2="B45" p1="26.440685581508145" p2="-26.440685581508145" selectedOperationalLimitsGroupId1="DEFAULT">
            <iidm:operationalLimitsGroup1 id="DEFAULT">
                <iidm:currentLimits permanentLimit="17269.308780284107">
                    <iidm:temporaryLimit name="N-1" acceptableDuration="2" value="34538.617560568215"/>
                </iidm:currentLimits>
            </iidm:operationalLimitsGroup1>
        </iidm:twoWindingsTransformer>
    </iidm:substation>
    <iidm:substation id="S16">
        <iidm:voltageLevel id="VL16" nominalV="1.0" topologyKind="BUS_BREAKER">
            <iidm:busBreakerTopology>
                <iidm:bus id="B16" name="Bus 16    V1" angle="-2.497250554476426"/>
                <iidm:bus id="B16_b" name="B16_b" angle="-2.497250554476426"/>
                <iidm:switch id="SWITCH-B16" kind="BREAKER" retained="true" open="false" bus1="B16" bus2="B16_b"/>
            </iidm:busBreakerTopology>
            <iidm:load id="B16-L" loadType="UNDEFINED" p0="43.0" q0="3.0" bus="B16" connectableBus="B16" p="43.0" q="3.0"/>
        </iidm:voltageLevel>
    </iidm:substation>
    <iidm:substation id="S17">
        <iidm:voltageLevel id="VL17" nominalV="1.0" topologyKind="BUS_BREAKER">
            <iidm:busBreakerTopology>
                <iidm:bus id="B17" name="Bus 17    V1" angle="-3.097115606433992"/>
                <iidm:bus id="B17_b" name="B17_b" angle="-3.097115606433992"/>
                <iidm:switch id="SWITCH-B17" kind="BREAKER" retained="true" open="false" bus1="B17" bus2="B17_b"/>
            </iidm:busBreakerTopology>
            <iidm:load id="B17-L" loadType="UNDEFINED" p0="42.0" q0="8.0" bus="B17" connectableBus="B17" p="42.0" q="8.0"/>
        </iidm:voltageLevel>
    </iidm:substation>
    <iidm:substation id="S19">
        <iidm:voltageLevel id="VL19" nominalV="1.0" topologyKind="BUS_BREAKER">
            <iidm:busBreakerTopology>
                <iidm:bus id="B19" name="Bus 19    V2" angle="-6.2214830643716965"/>
                <iidm:bus id="B19_b" name="B19_b" angle="-6.2214830643716965"/>
                <iidm:switch id="SWITCH-B19" kind="BREAKER" retained="true" open="false" bus1="B19" bus2="B19_b"/>
            </iidm:busBreakerTopology>
            <iidm:load id="B19-L" loadType="UNDEFINED" p0="3.3" q0="0.6" bus="B19" connectableBus="B19" p="3.3" q="0.6"/>
        </iidm:voltageLevel>
    </iidm:substation>
    <iidm:substation id="S20">
        <iidm:voltageLevel id="VL20" nominalV="1.0" topologyKind="BUS_BREAKER">
            <iidm:busBreakerTopology>
                <iidm:bus id="B20" name="Bus 20    V2" angle="-6.446400374776516"/>
                <iidm:bus id="B21" name="Bus 21    V3" angle="-5.798678112653416"/>
                <iidm:bus id="B20_b" name="B20_b" angle="-6.446400374776516"/>
                <iidm:bus id="B21_b" name="B21_b" angle="-5.798678112653416"/>
                <iidm:switch id="SWITCH-B20" kind="BREAKER" retained="true" open="false" bus1="B20" bus2="B20_b"/>
                <iidm:switch id="SWITCH-B21" kind="BREAKER" retained="true" open="false" bus1="B21" bus2="B21_b"/>
            </iidm:busBreakerTopology>
            <iidm:load id="B20-L" loadType="UNDEFINED" p0="2.3" q0="1.0" bus="B20" connectableBus="B20" p="2.3" q="1.0"/>
        </iidm:voltageLevel>
        <iidm:twoWindingsTransformer id="T21-20-1" r="0.0" x="0.007767" g="0.0" b="0.0" ratedU1="1.043" ratedU2="1.0" voltageLevelId1="VL20" bus1="B21" connectableBus1="B21" voltageLevelId2="VL20" bus2="B20" connectableBus2="B20" p1="1.3954959420981066" p2="-1.3954959420981066" selectedOperationalLimitsGroupId1="DEFAULT">
            <iidm:operationalLimitsGroup1 id="DEFAULT">
                <iidm:currentLimits permanentLimit="284.4052922217932">
                    <iidm:temporaryLimit name="N-1" acceptableDuration="2" value="568.8105844435864"/>
                </iidm:currentLimits>
            </iidm:operationalLimitsGroup1>
        </iidm:twoWindingsTransformer>
    </iidm:substation>
    <iidm:substation id="S22">
        <iidm:voltageLevel id="VL22" nominalV="1.0" topologyKind="BUS_BREAKER">
            <iidm:busBreakerTopology>
                <iidm:bus id="B22" name="Bus 22    V3" angle="-5.7051295601158865"/>
                <iidm:bus id="B22_b" name="B22_b" angle="-5.7051295601158865"/>
                <iidm:switch id="SWITCH-B22" kind="BREAKER" retained="true" open="false" bus1="B22" bus2="B22_b"/>
            </iidm:busBreakerTopology>
        </iidm:voltageLevel>
    </iidm:substation>
    <iidm:substation id="S23">
        <iidm:voltageLevel id="VL23" nominalV="1.0" topologyKind="BUS_BREAKER">
            <iidm:busBreakerTopology>
                <iidm:bus id="B23" name="Bus 23    V3" angle="-5.6984855415042555"/>
                <iidm:bus id="B23_b" name="B23_b" angle="-5.6984855415042555"/>
                <iidm:switch id="SWITCH-B23" kind="BREAKER" retained="true" open="false" bus1="B23" bus2="B23_b"/>
            </iidm:busBreakerTopology>
            <iidm:load id="B23-L" loadType="UNDEFINED" p0="6.3" q0="2.1" bus="B23" connectableBus="B23" p="6.3" q="2.1"/>
        </iidm:voltageLevel>
    </iidm:substation>
    <iidm:substation id="S24">
        <iidm:voltageLevel id="VL24" nominalV="1.0" topologyKind="BUS_BREAKER">
            <iidm:busBreakerTopology>
                <iidm:bus id="B24" name="Bus 24    V3" angle="-4.662519948689783"/>
                <iidm:bus id="B25" name="Bus 25    V4" angle="-9.61827938163477"/>
                <iidm:bus id="B26" name="Bus 26    V5" angle="-4.057266839547924"/>
                <iidm:bus id="B24_b" name="B24_b" angle="-4.662519948689783"/>
                <iidm:bus id="B25_b" name="B25_b" angle="-9.61827938163477"/>
                <iidm:bus id="B26_b" name="B26_b" angle="-4.057266839547924"/>
                <iidm:switch id="SWITCH-B24" kind="BREAKER" retained="true" open="false" bus1="B24" bus2="B24_b"/>
                <iidm:switch id="SWITCH-B25" kind="BREAKER" retained="true" open="false" bus1="B25" bus2="B25_b"/>
                <iidm:switch id="SWITCH-B26" kind="BREAKER" retained="true" open="false" bus1="B26" bus2="B26_b"/>
            </iidm:busBreakerTopology>
            <iidm:load id="B25-L" loadType="UNDEFINED" p0="6.3" q0="3.2" bus="B25" connectableBus="B25" p="6.3" q="3.2"/>
            <iidm:shunt id="B25-SH" sectionCount="1" solvedSectionCount="1" voltageRegulatorOn="false" bus="B25" connectableBus="B25" p="0.0">
                <iidm:shuntLinearModel bPerSection="5.8999999999999995" maximumSectionCount="1"/>
            </iidm:shunt>
        </iidm:voltageLevel>
        <iidm:twoWindingsTransformer id="T24-25-1" r="0.0" x="0.011819999999999999" g="0.0" b="0.0" ratedU1="1.0" ratedU2="1.0" voltageLevelId1="VL24" bus1="B24" connectableBus1="B24" voltageLevelId2="VL24" bus2="B25" connectableBus2="B25" p1="7.317624284404159" p2="-7.317624284404159" selectedOperationalLimitsGroupId1="DEFAULT">
            <iidm:operationalLimitsGroup1 id="DEFAULT">
                <iidm:currentLimits permanentLimit="4319.092954126703">
                    <iidm:temporaryLimit name="N-1" acceptableDuration="2" value="8638.185908253407"/>
                </iidm:currentLimits>
            </iidm:operationalLimitsGroup1>
        </iidm:twoWindingsTransformer>
        <iidm:twoWindingsTransformer id="T24-25-2" r="0.0" x="0.0123" g="0.0" b="0.0" ratedU1="1.0" ratedU2="1.0" voltageLevelId1="VL24" bus1="B24" connectableBus1="B24" voltageLevelId2="VL24" bus2="B25" connectableBus2="B25" p1="7.032058458671314" p2="-7.032058458671314" selectedOperationalLimitsGroupId1="DEFAULT">
            <iidm:operationalLimitsGroup1 id="DEFAULT">
                <iidm:currentLimits permanentLimit="4150.542985185172">
                    <iidm:temporaryLimit name="N-1" acceptableDuration="2" value="8301.085970370345"/>
                </iidm:currentLimits>
            </iidm:operationalLimitsGroup1>
        </iidm:twoWindingsTransformer>
        <iidm:twoWindingsTransformer id="T24-26-1" r="0.0" x="4.73E-4" g="0.0" b="0.0" ratedU1="1.043" ratedU2="1.0" voltageLevelId1="VL24" bus1="B24" connectableBus1="B24" voltageLevelId2="VL24" bus2="B26" connectableBus2="B26" p1="-21.41257748213306" p2="21.41257748213306" selectedOperationalLimitsGroupId1="DEFAULT">
            <iidm:operationalLimitsGroup1 id="DEFAULT">
                <iidm:currentLimits permanentLimit="9392.663382208384">
                    <iidm:temporaryLimit name="N-1" acceptableDuration="2" value="18785.326764416768"/>
                </iidm:currentLimits>
            </iidm:operationalLimitsGroup1>
        </iidm:twoWindingsTransformer>
    </iidm:substation>
    <iidm:substation id="S27">
        <iidm:voltageLevel id="VL27" nominalV="1.0" topologyKind="BUS_BREAKER">
            <iidm:busBreakerTopology>
                <iidm:bus id="B27" name="Bus 27    V5" angle="-0.9410670312612827"/>
                <iidm:bus id="B27_b" name="B27_b" angle="-0.9410670312612827"/>
                <iidm:switch id="SWITCH-B27" kind="BREAKER" retained="true" open="false" bus1="B27" bus2="B27_b"/>
            </iidm:busBreakerTopology>
            <iidm:load id="B27-L" loadType="UNDEFINED" p0="9.3" q0="0.5" bus="B27" connectableBus="B27" p="9.3" q="0.5"/>
        </iidm:voltageLevel>
    </iidm:substation>
    <iidm:substation id="S28">
        <iidm:voltageLevel id="VL28" nominalV="1.0" topologyKind="BUS_BREAKER">
            <iidm:busBreakerTopology>
                <iidm:bus id="B28" name="Bus 28    V5" angle="0.7376877873195115"/>
                <iidm:bus id="B28_b" name="B28_b" angle="0.7376877873195115"/>
                <iidm:switch id="SWITCH-B28" kind="BREAKER" retained="true" open="false" bus1="B28" bus2="B28_b"/>
            </iidm:busBreakerTopology>
            <iidm:load id="B28-L" loadType="UNDEFINED" p0="4.6" q0="2.3" bus="B28" connectableBus="B28" p="4.6" q="2.3"/>
        </iidm:voltageLevel>
    </iidm:substation>
    <iidm:substation id="S30">
        <iidm:voltageLevel id="VL30" nominalV="1.0" topologyKind="BUS_BREAKER">
            <iidm:busBreakerTopology>
                <iidm:bus id="B30" name="Bus 30    V4" angle="-10.549929333781751"/>
                <iidm:bus id="B30_b" name="B30_b" angle="-10.549929333781751"/>
                <iidm:switch id="SWITCH-B30" kind="BREAKER" retained="true" open="false" bus1="B30" bus2="B30_b"/>
            </iidm:busBreakerTopology>
            <iidm:load id="B30-L" loadType="UNDEFINED" p0="3.6" q0="1.8" bus="B30" connectableBus="B30" p="3.6" q="1.8"/>
        </iidm:voltageLevel>
    </iidm:substation>
    <iidm:substation id="S31">
        <iidm:voltageLevel id="VL31" nominalV="1.0" topologyKind="BUS_BREAKER">
            <iidm:busBreakerTopology>
                <iidm:bus id="B31" name="Bus 31    V4" angle="-11.817021099293335"/>
                <iidm:bus id="B31_b" name="B31_b" angle="-11.817021099293335"/>
                <iidm:switch id="SWITCH-B31" kind="BREAKER" retained="true" open="false" bus1="B31" bus2="B31_b"/>
            </iidm:busBreakerTopology>
            <iidm:load id="B31-L" loadType="UNDEFINED" p0="5.8" q0="2.9" bus="B31" connectableBus="B31" p="5.8" q="2.9"/>
        </iidm:voltageLevel>
    </iidm:substation>
    <iidm:substation id="S32">
        <iidm:voltageLevel id="VL32" nominalV="1.0" topologyKind="BUS_BREAKER">
            <iidm:busBreakerTopology>
                <iidm:bus id="B32" name="Bus 32    V4" angle="-11.232896626611128"/>
                <iidm:bus id="B34" name="Bus 34    V3" angle="-7.639175825773255"/>
                <iidm:bus id="B32_b" name="B32_b" angle="-11.232896626611128"/>
                <iidm:bus id="B34_b" name="B34_b" angle="-7.639175825773255"/>
                <iidm:switch id="SWITCH-B32" kind="BREAKER" retained="true" open="false" bus1="B32" bus2="B32_b"/>
                <iidm:switch id="SWITCH-B34" kind="BREAKER" retained="true" open="false" bus1="B34" bus2="B34_b"/>
            </iidm:busBreakerTopology>
            <iidm:load id="B32-L" loadType="UNDEFINED" p0="1.6" q0="0.8" bus="B32" connectableBus="B32" p="1.6" q="0.8"/>
        </iidm:voltageLevel>
        <iidm:twoWindingsTransformer id="T34-32-1" r="0.0" x="0.00953" g="0.0" b="0.0" ratedU1="0.975" ratedU2="1.0" voltageLevelId1="VL32" bus1="B34" connectableBus1="B34" voltageLevelId2="VL32" bus2="B32" connectableBus2="B32" p1="6.7503172569245065" p2="-6.7503172569245065" selectedOperationalLimitsGroupId1="DEFAULT">
            <iidm:operationalLimitsGroup1 id="DEFAULT">
                <iidm:currentLimits permanentLimit="4779.441877061223">
                    <iidm:temporaryLimit name="N-1" acceptableDuration="2" value="9558.883754122446"/>
                </iidm:currentLimits>
            </iidm:operationalLimitsGroup1>
        </iidm:twoWindingsTransformer>
    </iidm:substation>
    <iidm:substation id="S33">
        <iidm:voltageLevel id="VL33" nominalV="1.0" topologyKind="BUS_BREAKER">
            <iidm:busBreakerTopology>
                <iidm:bus id="B33" name="Bus 33    V4" angle="-11.311277252985024"/>
                <iidm:bus id="B33_b" name="B33_b" angle="-11.311277252985024"/>
                <iidm:switch id="SWITCH-B33" kind="BREAKER" retained="true" open="false" bus1="B33" bus2="B33_b"/>
            </iidm:busBreakerTopology>
            <iidm:load id="B33-L" loadType="UNDEFINED" p0="3.8" q0="1.9" bus="B33" connectableBus="B33" p="3.8" q="1.9"/>
        </iidm:voltageLevel>
    </iidm:substation>
    <iidm:substation id="S35">
        <iidm:voltageLevel id="VL35" nominalV="1.0" topologyKind="BUS_BREAKER">
            <iidm:busBreakerTopology>
                <iidm:bus id="B35" name="Bus 35    V3" angle="-7.337499368200296"/>
                <iidm:bus id="B35_b" name="B35_b" angle="-7.337499368200296"/>
                <iidm:switch id="SWITCH-B35" kind="BREAKER" retained="true" open="false" bus1="B35" bus2="B35_b"/>
            </iidm:busBreakerTopology>
            <iidm:load id="B35-L" loadType="UNDEFINED" p0="6.0" q0="3.0" bus="B35" connectableBus="B35" p="6.0" q="3.0"/>
        </iidm:voltageLevel>
    </iidm:substation>
    <iidm:substation id="S36">
        <iidm:voltageLevel id="VL36" nominalV="1.0" topologyKind="BUS_BREAKER">
            <iidm:busBreakerTopology>
                <iidm:bus id="B36" name="Bus 36    V3" angle="-6.945199728510837"/>
                <iidm:bus id="B36_b" name="B36_b" angle="-6.945199728510837"/>
                <iidm:switch id="SWITCH-B36" kind="BREAKER" retained="true" open="false" bus1="B36" bus2="B36_b"/>
            </iidm:busBreakerTopology>
        </iidm:voltageLevel>
    </iidm:substation>
    <iidm:substation id="S37">
        <iidm:voltageLevel id="VL37" nominalV="1.0" topologyKind="BUS_BREAKER">
            <iidm:busBreakerTopology>
                <iidm:bus id="B37" name="Bus 37    V3" angle="-6.649096566352966"/>
                <iidm:bus id="B37_b" name="B37_b" angle="-6.649096566352966"/>
                <iidm:switch id="SWITCH-B37" kind="BREAKER" retained="true" open="false" bus1="B37" bus2="B37_b"/>
            </iidm:busBreakerTopology>
        </iidm:voltageLevel>
    </iidm:substation>
    <iidm:substation id="S38">
        <iidm:voltageLevel id="VL38" nominalV="1.0" topologyKind="BUS_BREAKER">
            <iidm:busBreakerTopology>
                <iidm:bus id="B38" name="Bus 38    V3" angle="-5.694437173296396"/>
                <iidm:bus id="B38_b" name="B38_b" angle="-5.694437173296396"/>
                <iidm:switch id="SWITCH-B38" kind="BREAKER" retained="true" open="false" bus1="B38" bus2="B38_b"/>
            </iidm:busBreakerTopology>
            <iidm:load id="B38-L" loadType="UNDEFINED" p0="14.0" q0="7.0" bus="B38" connectableBus="B38" p="14.0" q="7.0"/>
        </iidm:voltageLevel>
    </iidm:substation>
    <iidm:substation id="S39">
        <iidm:voltageLevel id="VL39" nominalV="1.0" topologyKind="BUS_BREAKER">
            <iidm:busBreakerTopology>
                <iidm:bus id="B39" name="Bus 39    V3" angle="-6.70106469121959"/>
                <iidm:bus id="B57" name="Bus 57    V6" angle="-8.521868728433056"/>
                <iidm:bus id="B39_b" name="B39_b" angle="-6.70106469121959"/>
                <iidm:bus id="B57_b" name="B57_b" angle="-8.521868728433056"/>
                <iidm:switch id="SWITCH-B39" kind="BREAKER" retained="true" open="false" bus1="B39" bus2="B39_b"/>
                <iidm:switch id="SWITCH-B57" kind="BREAKER" retained="true" open="false" bus1="B57" bus2="B57_b"/>
            </iidm:busBreakerTopology>
            <iidm:load id="B57-L" loadType="UNDEFINED" p0="6.7" q0="2.0" bus="B57" connectableBus="B57" p="6.7" q="2.0"/>
        </iidm:voltageLevel>
        <iidm:twoWindingsTransformer id="T39-57-1" r="0.0" x="0.01355" g="0.0" b="0.0" ratedU1="0.98" ratedU2="1.0" voltageLevelId1="VL39" bus1="B39" connectableBus1="B39" voltageLevelId2="VL39" bus2="B57" connectableBus2="B57" p1="2.3931791161217224" p2="-2.3931791161217224" selectedOperationalLimitsGroupId1="DEFAULT">
            <iidm:operationalLimitsGroup1 id="DEFAULT">
                <iidm:currentLimits permanentLimit="2696.218700355155">
                    <iidm:temporaryLimit name="N-1" acceptableDuration="2" value="5392.43740071031"/>
                </iidm:currentLimits>
            </iidm:operationalLimitsGroup1>
        </iidm:twoWindingsTransformer>
    </iidm:substation>
    <iidm:substation id="S40">
        <iidm:voltageLevel id="VL40" nominalV="1.0" topologyKind="BUS_BREAKER">
            <iidm:busBreakerTopology>
                <iidm:bus id="B40" name="Bus 40    V3" angle="-6.981774049306571"/>
                <iidm:bus id="B56" name="Bus 56    V6" angle="-7.880285813043984"/>
                <iidm:bus id="B40_b" name="B40_b" angle="-6.981774049306571"/>
                <iidm:bus id="B56_b" name="B56_b" angle="-7.880285813043984"/>
                <iidm:switch id="SWITCH-B40" kind="BREAKER" retained="true" open="false" bus1="B40" bus2="B40_b"/>
                <iidm:switch id="SWITCH-B56" kind="BREAKER" retained="true" open="false" bus1="B56" bus2="B56_b"/>
            </iidm:busBreakerTopology>
            <iidm:load id="B56-L" loadType="UNDEFINED" p0="7.6" q0="2.2" bus="B56" connectableBus="B56" p="7.6" q="2.2"/>
        </iidm:voltageLevel>
        <iidm:twoWindingsTransformer id="T40-56-1" r="0.0" x="0.01195" g="0.0" b="0.0" ratedU1="0.958" ratedU2="1.0" voltageLevelId1="VL40" bus1="B40" connectableBus1="B40" voltageLevelId2="VL40" bus2="B56" connectableBus2="B56" p1="1.3698333037900825" p2="-1.3698333037900825" selectedOperationalLimitsGroupId1="DEFAULT">
            <iidm:operationalLimitsGroup1 id="DEFAULT">
                <iidm:currentLimits permanentLimit="3062.453800994595">
                    <iidm:temporaryLimit name="N-1" acceptableDuration="2" value="6124.90760198919"/>
                </iidm:currentLimits>
            </iidm:operationalLimitsGroup1>
        </iidm:twoWindingsTransformer>
    </iidm:substation>
    <iidm:substation id="S42">
        <iidm:voltageLevel id="VL42" nominalV="1.0" topologyKind="BUS_BREAKER">
            <iidm:busBreakerTopology>
                <iidm:bus id="B42" name="Bus 42    V6" angle="-7.349281956163958"/>
                <iidm:bus id="B42_b" name="B42_b" angle="-7.349281956163958"/>
                <iidm:switch id="SWITCH-B42" kind="BREAKER" retained="true" open="false" bus1="B42" bus2="B42_b"/>
            </iidm:busBreakerTopology>
            <iidm:load id="B42-L" loadType="UNDEFINED" p0="7.1" q0="4.4" bus="B42" connectableBus="B42" p="7.1" q="4.4"/>
        </iidm:voltageLevel>
    </iidm:substation>
    <iidm:substation id="S44">
        <iidm:voltageLevel id="VL44" nominalV="1.0" topologyKind="BUS_BREAKER">
            <iidm:busBreakerTopology>
                <iidm:bus id="B44" name="Bus 44    V3" angle="-5.210413826095331"/>
                <iidm:bus id="B44_b" name="B44_b" angle="-5.210413826095331"/>
                <iidm:switch id="SWITCH-B44" kind="BREAKER" retained="true" open="false" bus1="B44" bus2="B44_b"/>
            </iidm:busBreakerTopology>
            <iidm:load id="B44-L" loadType="UNDEFINED" p0="12.0" q0="1.8" bus="B44" connectableBus="B44" p="12.0" q="1.8"/>
        </iidm:voltageLevel>
    </iidm:substation>
    <iidm:substation id="S47">
        <iidm:voltageLevel id="VL47" nominalV="1.0" topologyKind="BUS_BREAKER">
            <iidm:busBreakerTopology>
                <iidm:bus id="B47" name="Bus 47    V3" angle="-5.311787655358057"/>
                <iidm:bus id="B47_b" name="B47_b" angle="-5.311787655358057"/>
                <iidm:switch id="SWITCH-B47" kind="BREAKER" retained="true" open="false" bus1="B47" bus2="B47_b"/>
            </iidm:busBreakerTopology>
            <iidm:load id="B47-L" loadType="UNDEFINED" p0="29.7" q0="11.6" bus="B47" connectableBus="B47" p="29.7" q="11.6"/>
        </iidm:voltageLevel>
    </iidm:substation>
    <iidm:substation id="S48">
        <iidm:voltageLevel id="VL48" nominalV="1.0" topologyKind="BUS_BREAKER">
            <iidm:busBreakerTopology>
                <iidm:bus id="B48" name="Bus 48    V3" angle="-5.398537976415657"/>
                <iidm:bus id="B48_b" name="B48_b" angle="-5.398537976415657"/>
                <iidm:switch id="SWITCH-B48" kind="BREAKER" retained="true" open="false" bus1="B48" bus2="B48_b"/>
            </iidm:busBreakerTopology>
        </iidm:voltageLevel>
    </iidm:substation>
    <iidm:substation id="S50">
        <iidm:voltageLevel id="VL50" nominalV="1.0" topologyKind="BUS_BREAKER">
            <iidm:busBreakerTopology>
                <iidm:bus id="B50" name="Bus 50    V3" angle="-5.381916326032853"/>
                <iidm:bus id="B50_b" name="B50_b" angle="-5.381916326032853"/>
                <iidm:switch id="SWITCH-B50" kind="BREAKER" retained="true" open="false" bus1="B50" bus2="B50_b"/>
            </iidm:busBreakerTopology>
            <iidm:load id="B50-L" loadType="UNDEFINED" p0="21.0" q0="10.5" bus="B50" connectableBus="B50" p="21.0" q="10.5"/>
        </iidm:voltageLevel>
    </iidm:substation>
    <iidm:substation id="S52">
        <iidm:voltageLevel id="VL52" nominalV="1.0" topologyKind="BUS_BREAKER">
            <iidm:busBreakerTopology>
                <iidm:bus id="B52" name="Bus 52    V5" angle="-0.30998338986650026"/>
                <iidm:bus id="B52_b" name="B52_b" angle="-0.30998338986650026"/>
                <iidm:switch id="SWITCH-B52" kind="BREAKER" retained="true" open="false" bus1="B52" bus2="B52_b"/>
            </iidm:busBreakerTopology>
            <iidm:load id="B52-L" loadType="UNDEFINED" p0="4.9" q0="2.2" bus="B52" connectableBus="B52" p="4.9" q="2.2"/>
        </iidm:voltageLevel>
    </iidm:substation>
    <iidm:substation id="S53">
        <iidm:voltageLevel id="VL53" nominalV="1.0" topologyKind="BUS_BREAKER">
            <iidm:busBreakerTopology>
                <iidm:bus id="B53" name="Bus 53    V5" angle="-1.209961650531908"/>
                <iidm:bus id="B53_b" name="B53_b" angle="-1.209961650531908"/>
                <iidm:switch id="SWITCH-B53" kind="BREAKER" retained="true" open="false" bus1="B53" bus2="B53_b"/>
            </iidm:busBreakerTopology>
            <iidm:load id="B53-L" loadType="UNDEFINED" p0="20.0" q0="10.0" bus="B53" connectableBus="B53" p="20.0" q="10.0"/>
            <iidm:shunt id="B53-SH" sectionCount="1" solvedSectionCount="1" voltageRegulatorOn="false" bus="B53" connectableBus="B53" p="0.0">
                <iidm:shuntLinearModel bPerSection="6.3" maximumSectionCount="1"/>
            </iidm:shunt>
        </iidm:voltageLevel>
    </iidm:substation>
    <iidm:substation id="S54">
        <iidm:voltageLevel id="VL54" nominalV="1.0" topologyKind="BUS_BREAKER">
            <iidm:busBreakerTopology>
                <iidm:bus id="B54" name="Bus 54    V5" angle="-0.6733374452953615"/>
                <iidm:bus id="B54_b" name="B54_b" angle="-0.6733374452953615"/>
                <iidm:switch id="SWITCH-B54" kind="BREAKER" retained="true" open="false" bus1="B54" bus2="B54_b"/>
            </iidm:busBreakerTopology>
            <iidm:load id="B54-L" loadType="UNDEFINED" p0="4.1" q0="1.4" bus="B54" connectableBus="B54" p="4.1" q="1.4"/>
        </iidm:voltageLevel>
    </iidm:substation>
    <iidm:line id="L1-2-1" r="8.3E-5" x="2.8000000000000003E-4" g1="0.0" b1="6.45" g2="0.0" b2="6.45" voltageLevelId1="VL1" bus1="B1" connectableBus1="B1" voltageLevelId2="VL2" bus2="B2" connectableBus2="B2" p1="12.428142208560374" p2="-12.428142208560374" selectedOperationalLimitsGroupId1="DEFAULT">
        <iidm:operationalLimitsGroup1 id="DEFAULT">
            <iidm:currentLimits permanentLimit="56723.11920847453">
                <iidm:temporaryLimit name="N-1" acceptableDuration="2" value="113446.23841694905"/>
            </iidm:currentLimits>
        </iidm:operationalLimitsGroup1>
    </iidm:line>
    <iidm:line id="L2-3-1" r="2.98E-4" x="8.500000000000001E-4" g1="0.0" b1="4.09" g2="0.0" b2="4.09" voltageLevelId1="VL2" bus1="B2" connectableBus1="B2" voltageLevelId2="VL3" bus2="B3" connectableBus2="B3" p1="9.428142208560372" p2="-9.428142208560372" selectedOperationalLimitsGroupId1="DEFAULT">
        <iidm:operationalLimitsGroup1 id="DEFAULT">
            <iidm:currentLimits permanentLimit="5284.474657191619">
                <iidm:temporaryLimit name="N-1" acceptableDuration="2" value="10568.949314383239"/>
            </iidm:currentLimits>
        </iidm:operationalLimitsGroup1>
    </iidm:line>
    <iidm:line id="L3-4-1" r="1.12E-4" x="3.66E-4" g1="0.0" b1="1.9" g2="0.0" b2="1.9" voltageLevelId1="VL3" bus1="B3" connectableBus1="B3" voltageLevelId2="VL4" bus2="B4" connectableBus2="B4" p1="-16.001534771642465" p2="16.001534771642465" selectedOperationalLimitsGroupId1="DEFAULT">
        <iidm:operationalLimitsGroup1 id="DEFAULT">
            <iidm:currentLimits permanentLimit="11609.369736994518">
                <iidm:temporaryLimit name="N-1" acceptableDuration="2" value="23218.739473989037"/>
            </iidm:currentLimits>
        </iidm:operationalLimitsGroup1>
    </iidm:line>
    <iidm:line id="L4-5-1" r="6.25E-4" x="0.00132" g1="0.0" b1="1.29" g2="0.0" b2="1.29" voltageLevelId1="VL4" bus1="B4" connectableBus1="B4" voltageLevelId2="VL5" bus2="B5" connectableBus2="B5" p1="-17.96801437597374" p2="17.96801437597374" selectedOperationalLimitsGroupId1="DEFAULT">
        <iidm:operationalLimitsGroup1 id="DEFAULT">
            <iidm:currentLimits permanentLimit="2955.495518772617">
                <iidm:temporaryLimit name="N-1" acceptableDuration="2" value="5910.991037545234"/>
            </iidm:currentLimits>
        </iidm:operationalLimitsGroup1>
    </iidm:line>
    <iidm:line id="L4-6-1" r="4.3E-4" x="0.00148" g1="0.0" b1="1.7399999999999998" g2="0.0" b2="1.7399999999999998" voltageLevelId1="VL4" bus1="B4" connectableBus1="B4" voltageLevelId2="VL6" bus2="B6" connectableBus2="B6" p1="-29.43802445357061" p2="29.43802445357061" selectedOperationalLimitsGroupId1="DEFAULT">
        <iidm:operationalLimitsGroup1 id="DEFAULT">
            <iidm:currentLimits permanentLimit="6703.000560631332">
                <iidm:temporaryLimit name="N-1" acceptableDuration="2" value="13406.001121262663"/>
            </iidm:currentLimits>
        </iidm:operationalLimitsGroup1>
    </iidm:line>
    <iidm:line id="L6-7-1" r="2.0E-4" x="0.0010199999999999999" g1="0.0" b1="1.38" g2="0.0" b2="1.38" voltageLevelId1="VL6" bus1="B6" connectableBus1="B6" voltageLevelId2="VL7" bus2="B7" connectableBus2="B7" p1="-40.71128330083" p2="40.71128330083" selectedOperationalLimitsGroupId1="DEFAULT">
        <iidm:operationalLimitsGroup1 id="DEFAULT">
            <iidm:currentLimits permanentLimit="14003.686505194139">
                <iidm:temporaryLimit name="N-1" acceptableDuration="2" value="28007.373010388277"/>
            </iidm:currentLimits>
        </iidm:operationalLimitsGroup1>
    </iidm:line>
    <iidm:line id="L6-8-1" r="3.39E-4" x="0.0017299999999999998" g1="0.0" b1="2.35" g2="0.0" b2="2.35" voltageLevelId1="VL6" bus1="B6" connectableBus1="B6" voltageLevelId2="VL8" bus2="B8" connectableBus2="B8" p1="-70.8745363835444" p2="70.8745363835444" selectedOperationalLimitsGroupId1="DEFAULT">
        <iidm:operationalLimitsGroup1 id="DEFAULT">
            <iidm:currentLimits permanentLimit="30083.09212597244">
                <iidm:temporaryLimit name="N-1" acceptableDuration="2" value="60166.18425194488"/>
            </iidm:currentLimits>
        </iidm:operationalLimitsGroup1>
    </iidm:line>
    <iidm:line id="L8-9-1" r="9.900000000000001E-5" x="5.05E-4" g1="0.0" b1="2.74" g2="0.0" b2="2.74" voltageLevelId1="VL8" bus1="B8" connectableBus1="B8" voltageLevelId2="VL9" bus2="B9" connectableBus2="B9" p1="271.1811237704816" p2="-271.1811237704816" selectedOperationalLimitsGroupId1="DEFAULT">
        <iidm:operationalLimitsGroup1 id="DEFAULT">
            <iidm:currentLimits permanentLimit="138397.92757770774">
                <iidm:temporaryLimit name="N-1" acceptableDuration="2" value="276795.8551554155"/>
            </iidm:currentLimits>
        </iidm:operationalLimitsGroup1>
    </iidm:line>
    <iidm:line id="L9-10-1" r="3.69E-4" x="0.001679" g1="0.0" b1="2.1999999999999997" g2="0.0" b2="2.1999999999999997" voltageLevelId1="VL9" bus1="B9" connectableBus1="B9" voltageLevelId2="VL10" bus2="B10" connectableBus2="B10" p1="33.9600564228898" p2="-33.9600564228898" selectedOperationalLimitsGroupId1="DEFAULT">
        <iidm:operationalLimitsGroup1 id="DEFAULT">
            <iidm:currentLimits permanentLimit="18016.01978361369">
                <iidm:temporaryLimit name="N-1" acceptableDuration="2" value="36032.03956722738"/>
            </iidm:currentLimits>
        </iidm:operationalLimitsGroup1>
    </iidm:line>
    <iidm:line id="L9-11-1" r="2.58E-4" x="8.48E-4" g1="0.0" b1="1.09" g2="0.0" b2="1.09" voltageLevelId1="VL9" bus1="B9" connectableBus1="B9" voltageLevelId2="VL11" bus2="B11" connectableBus2="B11" p1="48.273078281799" p2="-48.273078281799" selectedOperationalLimitsGroupId1="DEFAULT">
        <iidm:operationalLimitsGroup1 id="DEFAULT">
            <iidm:currentLimits permanentLimit="19981.542187167543">
                <iidm:temporaryLimit name="N-1" acceptableDuration="2" value="39963.084374335085"/>
            </iidm:currentLimits>
        </iidm:operationalLimitsGroup1>
    </iidm:line>
    <iidm:line id="L9-12-1" r="6.479999999999999E-4" x="0.00295" g1="0.0" b1="3.8600000000000003" g2="0.0" b2="3.8600000000000003" voltageLevelId1="VL9" bus1="B9" connectableBus1="B9" voltageLevelId2="VL12" bus2="B12" connectableBus2="B12" p1="16.754279020820967" p2="-16.754279020820967" selectedOperationalLimitsGroupId1="DEFAULT">
        <iidm:operationalLimitsGroup1 id="DEFAULT">
            <iidm:currentLimits permanentLimit="12710.362660960089">
                <iidm:temporaryLimit name="N-1" acceptableDuration="2" value="25420.725321920178"/>
            </iidm:currentLimits>
        </iidm:operationalLimitsGroup1>
    </iidm:line>
    <iidm:line id="L9-13-1" r="4.81E-4" x="0.00158" g1="0.0" b1="2.03" g2="0.0" b2="2.03" voltageLevelId1="VL9" bus1="B9" connectableBus1="B9" voltageLevelId2="VL13" bus2="B13" connectableBus2="B13" p1="36.25670175735308" p2="-36.25670175735308" selectedOperationalLimitsGroupId1="DEFAULT">
        <iidm:operationalLimitsGroup1 id="DEFAULT">
            <iidm:currentLimits permanentLimit="14299.736741444141">
                <iidm:temporaryLimit name="N-1" acceptableDuration="2" value="28599.473482888283"/>
            </iidm:currentLimits>
        </iidm:operationalLimitsGroup1>
    </iidm:line>
    <iidm:line id="L13-14-1" r="1.32E-4" x="4.3400000000000003E-4" g1="0.0" b1="0.5499999999999999" g2="0.0" b2="0.5499999999999999" voltageLevelId1="VL13" bus1="B13" connectableBus1="B13" voltageLevelId2="VL14" bus2="B14" connectableBus2="B14" p1="24.10193112071345" p2="-24.10193112071345" selectedOperationalLimitsGroupId1="DEFAULT">
        <iidm:operationalLimitsGroup1 id="DEFAULT">
            <iidm:currentLimits permanentLimit="9618.285800587439">
                <iidm:temporaryLimit name="N-1" acceptableDuration="2" value="19236.571601174877"/>
            </iidm:currentLimits>
        </iidm:operationalLimitsGroup1>
    </iidm:line>
    <iidm:line id="L13-15-1" r="2.69E-4" x="8.690000000000001E-4" g1="0.0" b1="1.15" g2="0.0" b2="1.15" voltageLevelId1="VL13" bus1="B13" connectableBus1="B13" voltageLevelId2="VL15" bus2="B15" connectableBus2="B15" p1="-2.1863251779008013" p2="2.1863251779008013" selectedOperationalLimitsGroupId1="DEFAULT">
        <iidm:operationalLimitsGroup1 id="DEFAULT">
            <iidm:currentLimits permanentLimit="13967.946605077805">
                <iidm:temporaryLimit name="N-1" acceptableDuration="2" value="27935.89321015561"/>
            </iidm:currentLimits>
        </iidm:operationalLimitsGroup1>
    </iidm:line>
    <iidm:line id="L1-15-1" r="1.78E-4" x="9.1E-4" g1="0.0" b1="4.9399999999999995" g2="0.0" b2="4.9399999999999995" voltageLevelId1="VL1" bus1="B1" connectableBus1="B1" voltageLevelId2="VL15" bus2="B15" connectableBus2="B15" p1="34.93203795115501" p2="-34.93203795115501" selectedOperationalLimitsGroupId1="DEFAULT">
        <iidm:operationalLimitsGroup1 id="DEFAULT">
            <iidm:currentLimits permanentLimit="34463.09541786303">
                <iidm:temporaryLimit name="N-1" acceptableDuration="2" value="68926.19083572605"/>
            </iidm:currentLimits>
        </iidm:operationalLimitsGroup1>
    </iidm:line>
    <iidm:line id="L1-16-1" r="4.5400000000000003E-4" x="0.0020599999999999998" g1="0.0" b1="2.73" g2="0.0" b2="2.73" voltageLevelId1="VL1" bus1="B1" connectableBus1="B1" voltageLevelId2="VL16" bus2="B16" connectableBus2="B16" p1="21.15788564216876" p2="-21.15788564216876" selectedOperationalLimitsGroupId1="DEFAULT">
        <iidm:operationalLimitsGroup1 id="DEFAULT">
            <iidm:currentLimits permanentLimit="19447.844443783775">
                <iidm:temporaryLimit name="N-1" acceptableDuration="2" value="38895.68888756755"/>
            </iidm:currentLimits>
        </iidm:operationalLimitsGroup1>
    </iidm:line>
    <iidm:line id="L1-17-1" r="2.38E-4" x="0.00108" g1="0.0" b1="1.43" g2="0.0" b2="1.43" voltageLevelId1="VL1" bus1="B1" connectableBus1="B1" voltageLevelId2="VL17" bus2="B17" connectableBus2="B17" p1="50.050800599235224" p2="-50.050800599235224" selectedOperationalLimitsGroupId1="DEFAULT">
        <iidm:operationalLimitsGroup1 id="DEFAULT">
            <iidm:currentLimits permanentLimit="37447.83634497519">
                <iidm:temporaryLimit name="N-1" acceptableDuration="2" value="74895.67268995038"/>
            </iidm:currentLimits>
        </iidm:operationalLimitsGroup1>
    </iidm:line>
    <iidm:line id="L3-15-1" r="1.6199999999999998E-4" x="5.3E-4" g1="0.0" b1="2.7199999999999998" g2="0.0" b2="2.7199999999999998" voltageLevelId1="VL3" bus1="B3" connectableBus1="B3" voltageLevelId2="VL15" bus2="B15" connectableBus2="B15" p1="38.291233660146865" p2="-38.291233660146865" selectedOperationalLimitsGroupId1="DEFAULT">
        <iidm:operationalLimitsGroup1 id="DEFAULT">
            <iidm:currentLimits permanentLimit="42181.38028625417">
                <iidm:temporaryLimit name="N-1" acceptableDuration="2" value="84362.76057250834"/>
            </iidm:currentLimits>
        </iidm:operationalLimitsGroup1>
    </iidm:line>
    <iidm:line id="L5-6-1" r="3.02E-4" x="6.410000000000001E-4" g1="0.0" b1="0.62" g2="0.0" b2="0.62" voltageLevelId1="VL5" bus1="B5" connectableBus1="B5" voltageLevelId2="VL6" bus2="B6" connectableBus2="B6" p1="-30.96801437597374" p2="30.96801437597374" selectedOperationalLimitsGroupId1="DEFAULT">
        <iidm:operationalLimitsGroup1 id="DEFAULT">
            <iidm:currentLimits permanentLimit="9437.272422949118">
                <iidm:temporaryLimit name="N-1" acceptableDuration="2" value="18874.544845898236"/>
            </iidm:currentLimits>
        </iidm:operationalLimitsGroup1>
    </iidm:line>
    <iidm:line id="L7-8-1" r="1.39E-4" x="7.12E-4" g1="0.0" b1="0.97" g2="0.0" b2="0.97" voltageLevelId1="VL7" bus1="B7" connectableBus1="B7" voltageLevelId2="VL8" bus2="B8" connectableBus2="B8" p1="-113.88685249534439" p2="113.88685249534439" selectedOperationalLimitsGroupId1="DEFAULT">
        <iidm:operationalLimitsGroup1 id="DEFAULT">
            <iidm:currentLimits permanentLimit="53553.54633693356">
                <iidm:temporaryLimit name="N-1" acceptableDuration="2" value="107107.09267386713"/>
            </iidm:currentLimits>
        </iidm:operationalLimitsGroup1>
    </iidm:line>
    <iidm:line id="L10-12-1" r="2.77E-4" x="0.001262" g1="0.0" b1="1.6400000000000001" g2="0.0" b2="1.6400000000000001" voltageLevelId1="VL10" bus1="B10" connectableBus1="B10" voltageLevelId2="VL12" bus2="B12" connectableBus2="B12" p1="-6.017283377662543" p2="6.017283377662543" selectedOperationalLimitsGroupId1="DEFAULT">
...